648
 Atoms. Timestep: 7205280
Si 20.8814 18.2081 5.86044
Si 19.2561 10.352 6.84931
Si 18.8325 13.6007 17.717
Si 19.2891 16.6687 10.5773
Si 14.1661 7.24966 2.37256
Si 5.27448 22.4275 10.7238
Si 22.2968 4.37732 9.2256
Si 8.60192 13.678 9.22782
Si 10.4985 14.878 6.93427
Si 11.5075 14.3545 21.5201
Si 1.60635 3.34725 20.7899
Si 9.59375 0.341435 3.6668
Si 6.44924 8.76956 18.1399
Si 11.1344 1.03351 7.85394
Si 21.483 16.6971 9.85332
Si 1.01997 19.0477 6.33406
Si 2.92391 10.4737 0.0089461
Si 0.78913 14.6456 17.6421
Si 6.30264 18.3557 6.64768
Si 21.3984 10.8371 22.6392
Si 6.72447 20.1284 9.16625
Si 7.44758 5.87666 21.2571
Si 5.78143 0.753514 14.5669
Si 3.99377 9.2356 2.67777
Si 11.4766 2.81804 6.3257
Si 3.42623 19.3567 13.3172
Si 15.1889 22.7853 14.8286
Si 18.8511 18.7652 3.35778
Si 21.0846 13.1579 0.21174
Si 18.4654 0.0148898 2.09844
Si -0.0374343 16.57 7.89871
Si 13.139 19.919 17.9008
Si 12.7518 11.586 11.0689
Si 2.80653 22.792 0.377224
Si 22.8473 12.4472 13.3472
Si 19.0107 12.328 9.41124
Si 16.5093 8.44538 14.8028
Si 11.6685 4.54772 21.8292
Si 22.3542 3.61145 19.331
Si 21.0286 5.4944 12.5254
Si 6.57245 13.0496 20.976
Si 18.8921 8.87395 22.3048
Si 15.7206 5.3783 10.8386
Si 4.08128 22.5581 21.3651
Si 6.1955 2.59131 5.93842
Si 16.0799 17.2008 19.3581
Si 6.62184 17.2274 10.238
Si 18.126 4.27709 15.1608
Si 5.4445 6.4924 22.4257
Si 12.0686 11.8956 0.598975
Si 8.371 14.7371 21.7068
Si 3.65799 11.0672 11.8264
Si 18.28 15.686 16.5895
Si 9.27768 6.39417 5.67258
Si 1.26964 9.77904 10.0604
Si 12.1668 16.5956 16.3045
Si 9.27314 13.9342 3.31258
Si 15.8207 10.7083 3.3334
Si 17.8189 8.03898 12.036
Si 0.249069 2.08422 17.6485
Si 17.3665 10.156 19.8134
Si 13.2295 3.5055 4.88793
Si 15.8739 13.9462 11.4342
Si 1.52989 14.0468 14.1299
Si 8.93993 13.4892 12.9403
Si 2.84088 1.08074 4.20836
Si 4.88403 22.1816 13.0205
Si 17.6215 14.194 9.73617
Si 22.7278 8.27812 15.8438
Si 1.5468 10.3447 17.3237
Si 14.2268 21.3904 19.4348
Si 12.898 18.2491 21.4317
Si 10.7473 4.75045 13.4714
Si 20.6024 20.8221 8.92047
Si 0.60184 0.434505 8.01736
Si 0.828616 13.9101 6.38006
Si 21.23 0.670509 7.5793
Si 8.55769 4.48978 4.59067
Si 4.00581 3.02862 5.09561
Si 18.4895 8.94921 15.8087
Si 2.86446 18.8425 3.74118
Si 17.0443 1.68175 16.514
Si 19.6338 0.778192 12.2443
Si 17.8394 20.6059 6.44036
Si 9.36847 9.78746 14.6516
Si 10.8957 22.5582 0.388683
Si 8.76529 13.2582 16.9381
Si 19.4435 4.06796 1.64463
Si 4.87472 14.2212 12.8065
Si 1.99664 14.4275 20.5702
Si 16.5787 15.2834 0.651356
Si 5.87574 7.80464 1.48735
Si 17.3432 7.8249 0.705599
Si 9.07981 21.6246 7.8073
Si 13.3033 4.02048 0.425129
Si 5.81663 11.4744 22.6229
Si 8.27386 4.61927 15.4123
Si 8.54753 20.7352 21.2398
Si 10.7608 22.264 14.3851
Si 22.5735 16.5179 13.7021
Si 2.6609 14.746 16.0912
Si 5.05197 12.1417 3.40669
Si 9.97704 17.53 1.02927
Si 13.1362 16.9097 5.08485
Si 22.8079 0.370326 12.1566
Si 3.69969 3.33468 8.16282
Si 2.67505 8.87234 19.8825
Si 17.754 0.756585 6.16313
Si 17.4674 0.746723 21.5008
Si 16.4286 15.2662 7.86545
Si 1.35357 16.611 2.19441
Si 21.4044 15.3074 4.91452
Si 12.4134 15.9768 8.01783
Si 3.86698 11.8511 15.7833
Si 12.9488 14.9313 18.764
Si 14.1591 15.2028 3.71926
Si 19.3877 19.1845 7.59246
Si 21.1083 4.04073 14.3976
Si 6.73484 8.13508 6.15452
Si 18.0484 17.6501 17.953
Si 14.328 6.53223 20.8271
Si 19.8221 17.8829 19.6669
Si 7.63509 14.682 14.4258
Si 11.356 4.87573 7.69774
Si 6.35046 11.8432 6.94809
Si 0.0746569 22.0822 15.1028
Si 9.14815 17.4037 5.57067
Si 7.24201 3.74514 18.8025
Si 4.56385 8.98575 12.2181
Si 7.11274 22.6941 17.2786
Si 8.99501 15.079 11.1131
Si 9.92343 9.83993 19.6273
Si 10.0835 9.50178 22.7136
Si 16.9138 19.4349 16.5633
Si 12.2951 8.7168 4.56311
Si 16.0313 7.42379 19.2462
Si 2.66681 2.87421 14.1316
Si 2.7183 1.75076 19.5248
Si 1.718 2.40285 8.93399
Si 14.9357 7.53354 16.2882
Si 11.041 19.2515 13.7788
Si 15.0895 10.6102 1.00523
Si 12.3434 5.33221 19.6817
Si 5.83647 16.178 1.34653
Si 12.8233 5.40702 2.3014
Si 8.21301 15.7984 0.819319
Si 9.13293 17.289 15.2702
Si 22.1458 19.9016 18.4394
Si 14.296 17.5109 11.8917
Si 13.3008 12.5985 8.95314
Si 4.78456 17.1192 11.6643
Si 1.49834 5.57485 16.2263
Si 21.3421 22.5075 16.8699
Si 15.8691 6.09583 5.77175
Si 21.6166 13.6601 10.7161
Si 2.6447 9.78117 6.18068
Si 9.6135 4.75658 10.4485
Si 12.8687 1.39672 13.3066
Si 5.47341 9.67362 7.70429
Si 6.74944 10.4485 16.5176
Si 18.0956 6.49307 19.8382
Si 14.0714 8.27646 7.08638
Si 18.794 4.5462 12.1384
Si 16.1775 5.75404 13.2681
Si 15.6373 0.385304 9.89128
Si 8.8823 0.441103 1.44982
Si 10.182 2.6147 4.20617
Si 16.267 11.7615 21.3291
Si 17.9149 17.7698 8.91347
Si 0.246642 2.50753 2.85854
Si 11.8187 6.77316 13.4466
Si 1.296 2.22363 12.0244
Si 7.18298 18.7106 17.4665
Si 0.0908108 5.1355 11.2669
Si 21.4004 13.3845 15.9164
Si 3.37071 12.6275 13.6268
Si 20.7025 7.742 13.1068
Si 21.1505 0.201075 22.6256
Si 14.8585 10.9924 13.8553
Si 5.58765 2.13338 8.94181
Si 10.5112 20.1767 22.449
Si 10.15 8.08308 3.97243
Si 16.2463 14.6997 4.78941
Si 0.0127468 10.3003 3.13586
Si 11.7708 16.4305 22.6119
Si 12.457 17.9551 19.0947
Si 14.2374 4.57462 6.66883
Si 11.8791 12.2194 6.17956
Si 0.430899 17.5828 16.5887
Si 17.9847 6.19157 10.6908
Si 0.640138 10.7013 7.08133
Si 7.16379 12.1066 4.62106
Si 19.465 16.3733 13.6603
Si 2.33853 8.56404 4.26436
Si 17.8917 4.98469 6.22582
Si 0.993339 21.5655 22.4546
Si 11.626 12.5962 15.9309
Si 1.16895 22.1903 6.1057
Si 7.40174 11.4772 11.1234
Si 3.19284 14.5712 4.51948
Si 16.0598 6.30148 3.44107
Si 2.68052 12.7215 0.285321
Si 10.7247 1.12282 18.767
Si 7.53205 1.32328 19.0402
Si 21.8426 5.31282 3.17143
Si 15.462 20.0784 3.3028
Si 2.67785 17.9196 8.70892
Si 11.6282 8.45078 10.6786
Si 11.5451 10.571 18.3461
Si 7.70312 10.0074 3.83376
Si 4.71692 17.4193 4.067
Si 4.43615 17.6858 21.8951
Si 17.1031 21.5669 14.2918
Si 20.3887 1.86007 21.2206
Si 14.4607 16.0119 1.42425
Si 1.92381 19.2281 11.5994
Si 8.74444 5.07628 0.0143366
Si 8.50022 7.963 19.0034
Si 2.83684 7.52635 12.8814
Si 8.8598 6.9768 10.4579
Si 9.08513 4.39892 17.5686
Si 1.33705 19.8908 20.8889
Si 6.08758 0.764879 21.9495
Si 5.71167 6.21658 16.4477
Si 18.1605 11.3436 17.8746
Si 0.33902 9.27082 13.8599
Si 14.4294 5.71661 14.7443
Si 2.11613 17.1206 22.0906
Si 19.7235 13.4435 3.0544
Si 10.5734 20.6894 5.23536
Si 11.6959 16.4207 10.3074
Si 10.5926 18.5325 4.11732
Si 17.7951 18.9191 21.9467
Si 12.1913 0.5176 20.5907
Si 5.31973 12.5834 11.0812
Si 12.4453 1.61227 2.20452
Si 2.87634 5.65933 19.0797
Si 3.75844 19.57 20.5831
Si 18.2641 21.9199 22.8098
Si 1.83549 2.93639 0.144982
Si 6.93276 2.45248 13.5753
Si 0.184119 21.5736 10.5512
Si 18.8256 2.56148 10.9781
Si 16.7224 2.58664 9.95833
Si 10.0299 6.59979 17.9041
Si 20.9214 8.80705 6.66475
Si 3.28057 5.91029 14.559
Si 10.2253 7.08803 1.84028
Si 17.6794 20.6098 4.06514
Si 2.77684 17.8572 16.0176
Si 13.5785 17.8485 14.9105
Si 20.6283 1.14029 1.72395
Si 15.8497 18.931 20.7655
Si 17.4647 17.5266 0.716232
Si 12.8339 10.9871 4.52096
Si 4.83132 13.0624 1.26178
Si 20.0771 11.3323 4.04251
Si 1.23156 9.67754 21.607
Si 14.8259 11.0646 8.21446
Si 16.3393 0.756167 19.4043
Si 6.92798 5.1778 3.01377
Si 14.279 9.91742 19.7175
Si 6.77283 16.7599 19.9585
Si 6.24065 8.65801 10.6209
Si 3.0232 4.88395 0.580477
Si 7.12192 9.78864 0.809627
Si 13.583 6.73651 8.78661
Si 1.74305 6.83042 10.9538
Si 12.2081 12.6617 2.94448
Si 2.88757 5.58417 3.60395
Si 12.6265 9.65979 15.5629
Si 15.1292 18.2945 0.761141
Si 20.4284 7.63981 4.67352
Si 3.82589 21.645 2.28666
Si 21.6676 0.305423 4.50891
Si 22.8339 18.2035 12.1893
Si 11.1483 3.19682 17.6435
Si 4.04582 1.80466 15.8628
Si 5.53145 16.6955 8.10306
Si 1.06821 14.622 3.38565
Si 15.1882 4.78484 22.1219
Si 7.26815 3.11821 0.692309
Si 8.19498 20.6904 18.0653
Si 4.82008 9.18274 20.812
Si 15.3775 13.2703 14.4532
Si 17.3311 5.65983 22.7619
Si 13.366 0.941725 10.1936
Si 5.23127 4.2484 17.6577
Si 20.7848 6.03883 18.0948
Si 19.9896 6.23176 8.19749
Si 14.6978 18.4846 16.8419
Si 20.4508 7.70263 15.479
Si 4.22499 5.22216 9.5896
Si 17.1526 14.8507 21.2307
Si 14.0008 1.50622 3.93976
Si 13.6241 21.5697 5.386
Si 12.3635 3.39146 14.6961
Si 15.8645 21.1088 7.7335
Si 15.0473 11.7451 11.6568
Si 18.7245 0.366397 15.2106
Si 6.46093 21.7585 0.323016
Si 17.3703 13.4622 3.13186
Si 16.4749 19.1699 10.1143
Si 16.7518 10.5804 10.5828
Si 2.89024 21.8923 16.3718
Si 10.972 8.08034 15.1974
Si 17.0194 1.59856 3.2563
Si 4.10066 19.1925 17.47
Si 19.5654 14.9375 20.6783
Si 7.7115 11.7562 18.3809
Si 14.7862 2.22777 20.3871
Si 0.879798 3.25311 15.723
Si 10.8531 21.7382 16.5813
Si 17.6125 8.0742 3.10748
Si 14.2391 14.7172 8.9086
Si 17.9284 3.7969 3.35604
Si 13.1597 14.2503 16.5023
Si 14.9782 8.3264 0.434431
Si 6.36947 13.7103 8.40328
Si 16.8364 3.29606 7.7061
Si 10.8944 12.3502 13.5585
Si 6.70913 3.54944 10.5109
Si 0.916169 12.9695 1.78412
Si 17.3457 21.5682 11.8766
O 2.31223 4.7765 20.3326
O 5.61477 16.8897 2.78366
O 10.1128 4.45411 22.3072
O 8.55285 20.8003 19.6461
O 15.5355 18.1682 10.993
O 3.97053 20.9252 13.5569
O 0.447717 10.9071 13.6694
O 3.13916 20.2824 2.94891
O 6.59391 3.91017 2.0271
O 15.6832 19.8317 8.80973
O 4.60173 2.91814 16.9849
O 0.663334 10.3866 8.68294
O 2.69447 5.49084 2.03732
O 21.8286 20.7104 10.0419
O 13.205 13.9078 3.18199
O 4.3525 4.98579 18.8001
O 4.01565 13.2718 4.03223
O 20.5648 5.0975 2.17023
O 2.63409 1.51105 0.591258
O 8.20563 16.1859 14.437
O 15.9782 9.79874 14.0688
O 1.23241 17.8707 7.6786
O 0.383477 20.144 19.5305
O 7.93926 21.1586 8.89057
O 7.25837 9.84276 11.0871
O 5.55193 4.82003 10.4134
O 20.6592 6.3874 16.4919
O 10.5169 7.18476 16.4598
O 21.5961 6.59212 4.19835
O 21.8024 1.26841 3.02382
O 10.6508 13.0746 3.08983
O 9.47333 20.7585 6.52832
O 7.34503 10.4331 2.30649
O 12.215 4.09029 18.597
O 12.1803 20.8178 5.59762
O 0.0202706 22.3837 4.89577
O 6.64864 12.5334 19.4103
O 11.8229 7.77222 12.1449
O 22.6071 13.4444 0.800747
O 7.14143 18.791 10.0482
O 13.7411 4.27317 15.0247
O 10.3292 21.9114 4.14222
O 6.14737 19.7133 7.62817
O 0.492671 12.3688 6.82984
O 1.75038 1.60924 18.1972
O 20.1886 18.5181 4.31823
O 11.434 0.602528 13.5722
O 7.7815 13.9207 15.8568
O 12.2383 11.9987 7.76944
O 18.3307 17.7633 2.16484
O 13.3346 8.2914 3.40774
O 2.59166 18.6402 10.2097
O 16.7315 13.2755 21.0613
O 14.6343 14.0541 15.7335
O 18.1395 11.4438 10.5353
O 9.42789 5.18626 14.3868
O 9.76824 18.982 0.343259
O 2.22857 18.7483 5.2602
O 12.3513 9.97693 10.798
O 14.5441 21.1805 6.70318
O 19.3319 14.1664 19.2099
O 16.1883 11.2216 -0.0334892
O 21.4362 21.2495 17.8742
O 17.6863 1.95905 7.22968
O 16.821 7.41134 13.3723
O 0.712465 11.4761 2.30711
O 18.4221 21.8674 3.32003
O 5.81941 7.38064 17.5526
O 12.1187 14.3818 20.0093
O 7.23673 7.35694 10.5674
O 9.8621 0.0677946 8.00741
O 19.0032 5.87215 6.99389
O 0.856165 15.4496 13.4835
O 21.1698 2.77523 20.0971
O 15.6288 0.918136 16.025
O 3.31338 0.533963 16.5293
O 20.3672 14.0764 21.8948
O 13.7063 8.66934 16.4184
O 15.0326 19.4738 1.83415
O 7.70185 22.243 1.34647
O 22.349 9.68639 6.61014
O 4.61889 10.5587 3.35917
O 14.21 7.75484 22.0444
O 20.2438 16.3878 20.2165
O 6.17657 2.15287 22.7769
O 0.438299 16.2647 17.6559
O 14.4441 11.0066 4.18753
O 0.268734 15.0598 7.37046
O 19.0748 18.5795 20.9468
O 4.45168 21.0092 20.9723
O 2.66008 7.21819 19.5807
O 0.856048 8.92122 3.56912
O 22.794 22.5982 13.5985
O 3.0275 9.59671 1.3978
O 22.791 3.98882 3.52153
O 0.541925 2.88783 1.2364
O 21.0411 5.05638 8.44135
O 15.2532 3.39022 7.25459
O 10.4597 5.93359 6.75819
O 5.20766 17.3169 0.369133
O 8.79523 10.972 19.3342
O 5.26854 16.9385 20.7191
O 5.14094 0.845842 9.82661
O 10.532 16.7258 16.046
O 8.01421 7.21331 6.4891
O 18.9692 16.8872 12.1758
O 2.38632 0.200736 5.51777
O 17.217 1.29232 18.1468
O 13.2026 2.45178 1.01688
O 9.98041 8.25825 10.3561
O 19.768 4.19078 15.3405
O 15.8931 9.09658 19.5737
O 16.9286 11.9143 3.22987
O 17.2298 3.29219 16.1052
O 19.3922 8.48084 12.3296
O 7.10565 5.8068 15.7292
O 2.5121 11.0475 16.1736
O 15.4857 7.53143 6.51976
O 0.0709968 14.5592 4.874
O 13.0258 15.9282 0.626274
O 6.63814 2.79207 11.9611
O 9.64333 14.0012 7.98257
O 20.9713 19.0067 19.1376
O 11.2395 6.40854 19.0113
O 3.65391 13.4208 16.346
O 11.9326 0.175811 1.54855
O 14.3353 9.87523 7.23246
O 5.30497 11.0272 15.9396
O 15.9828 14.073 13.0821
O 16.1232 15.8711 20.3546
O 17.263 0.930373 4.63362
O 15.7248 3.75894 10.5876
O 6.52212 6.80222 2.68286
O 5.24412 21.3983 1.44268
O 11.1957 2.53529 2.87104
O 21.911 17.9543 10.8539
O 7.63129 3.28338 14.7472
O 13.3709 10.4724 14.3225
O 5.59675 20.9648 10.0599
O 11.9202 10.9663 16.617
O 11.1668 0.285289 21.8612
O 1.32164 20.6467 6.59866
O 1.67977 16.4513 0.604456
O 1.50657 21.4944 15.7067
O 19.3843 1.11766 13.8812
O 7.9337 15.8235 20.596
O 18.4863 4.21322 4.83512
O 3.811 4.42101 4.22719
O 21.2493 0.829065 11.8725
O 12.0905 20.6566 16.8519
O 9.97171 10.9878 13.6386
O 1.9117 2.12388 10.5144
O 20.9216 16.579 5.89471
O 15.5382 7.05994 17.7149
O 14.0308 0.334703 13.8049
O 8.86194 14.9264 2.08054
O 21.9658 0.94093 17.5965
O 22.5132 3.28763 14.754
O 4.2517 5.4157 22.5066
O 3.91694 16.8855 8.42367
O 15.3191 3.63415 20.905
O 12.8905 1.50781 11.6572
O 3.98024 9.66218 7.14385
O 21.3528 10.4644 3.59735
O 5.42062 18.2434 5.28021
O 5.17756 14.7017 1.21208
O 7.21317 17.7421 18.7649
O 8.29088 3.87709 10.1403
O 8.06693 7.09195 20.3707
O 12.9343 9.83027 18.8184
O 16.5927 14.5896 6.39951
O 4.49485 10.4661 22.1024
O 9.88129 18.163 14.0749
O 0.622119 3.73648 11.9852
O 13.2649 1.7496 20.7517
O 11.067 0.0314634 17.5767
O 20.1654 14.6576 4.02338
O 12.3003 7.37602 9.59194
O 22.1106 8.60099 12.9085
O 18.5455 9.49355 20.807
O 0.20602 9.40888 16.9347
O 5.28217 13.2422 9.5338
O 16.1421 22.4746 11.2501
O 18.7155 1.81203 21.3956
O 10.3751 13.3783 16.7863
O 18.8127 22.4252 11.7436
O 22.5595 22.4579 22.3341
O 18.1402 5.90055 21.3063
O 14.4427 17.3867 13.5065
O 14.6185 18.4434 21.9976
O 15.3865 1.52087 2.99541
O 3.90708 16.0202 4.57586
O 10.6266 20.8481 13.5627
O 6.00109 15.1768 7.77437
O 19.8909 22.0214 22.4495
O 18.4563 10.4412 16.5609
O 6.39451 1.90911 7.43726
O 3.5622 0.447651 20.0702
O 6.62872 -0.0384774 15.7528
O 10.4168 4.50839 11.903
O 14.804 14.7359 10.5268
O 12.0031 12.3455 12.3013
O 12.1411 18.0352 4.30906
O 5.62717 9.46295 19.4325
O 3.7231 -0.0140865 3.35707
O 17.5565 20.4501 22.5307
O 2.28374 9.84447 18.6672
O 16.1798 10.568 9.05538
O 12.1312 13.2306 22.5735
O 13.0726 16.7668 6.71775
O 21.0442 0.911407 5.92139
O 1.66375 1.86407 3.26869
O 14.2896 20.5957 4.25876
O 3.46927 3.64064 6.60316
O 17.2866 14.1881 1.72495
O 18.4868 15.9598 14.9297
O 22.6809 13.5408 16.8791
O 1.77196 8.60586 13.4591
O 8.9418 6.2725 1.11564
O 7.65048 16.0688 10.8991
O 13.5415 11.087 0.56184
O 5.62699 18.9762 17.0786
O 5.35198 7.71908 21.355
O 8.02101 18.0196 16.2271
O 2.26407 13.3354 21.7094
O 22.7704 18.9342 17.2946
O 0.599644 6.88041 15.8557
O 6.85489 8.95427 4.72459
O 21.9521 5.05263 18.7327
O 21.5837 12.8413 14.401
O 3.2717 16.2664 16.0459
O 11.9049 19.624 21.6709
O 17.6706 4.78315 13.5426
O 8.4097 12.2335 9.98088
O 22.6542 17.308 15.1396
O 18.2665 22.2048 6.69877
O 4.54872 6.50699 15.3452
O 20.4463 22.395 8.34546
O 6.85687 0.992362 20.4807
O 19.1227 10.9625 5.30291
O 2.21641 10.8145 10.9967
O 15.2837 20.3837 20.1447
O 20.2169 9.68649 -0.0562911
O 19.0477 11.45 8.01747
O 10.2811 15.9577 10.9367
O 19.1191 8.00613 3.76147
O 4.55361 18.3986 12.6758
O 15.0085 17.4038 18.0582
O 12.5272 16.5233 18.059
O 20.7976 7.59813 7.78703
O 22.4701 12.8046 11.8136
O 17.2632 20.2069 15.1375
O 16.9397 9.03556 11.079
O 0.345337 3.26083 8.57178
O 12.8893 17.2361 11.0756
O 18.3892 4.506 0.494129
O 8.48856 9.50786 0.0476748
O 19.5664 6.53294 19.0708
O 5.48212 9.06507 9.17366
O 10.8497 10.8822 0.320105
O 8.13178 13.3987 4.35544
O 4.25664 15.6661 12.1138
O 15.2245 22.5451 18.8102
O 9.47294 20.865 17.0988
O 13.1525 22.105 20.4131
O 19.8587 13.1706 16.4827
O 7.90377 18.1427 6.36236
O 20.159 13.5773 1.52
O 16.1563 22.4662 8.56854
O 20.4961 12.9068 9.81682
O 9.18907 1.1198 19.2215
O 11.1895 13.7151 5.97127
O 7.43277 3.51221 5.31888
O 1.71676 18.0382 2.85714
O 12.9513 4.52957 3.64641
O 2.74869 18.6409 14.5714
O 9.52542 15.9026 6.02462
O 6.07558 14.5844 13.8089
O 1.92145 5.56698 17.7755
O 17.1335 16.7517 7.93427
O 7.18751 20.7076 22.1776
O 22.7368 10.4475 21.7614
O 1.40645 14.0237 19.0964
O 14.7254 6.37983 9.92865
O 1.01203 8.23034 10.3933
O 18.9638 6.49891 9.4522
O 8.01636 12.2349 12.4473
O 18.7064 15.2371 10.3199
O 14.8413 11.2274 20.5887
O 3.85568 19.0051 19.0635
O 17.355 20.1843 11.0555
O 10.1291 18.0174 2.62919
O 13.4141 6.64249 13.7927
O 1.44479 20.8162 11.3214
O 11.6257 2.90892 16.1
O 10.5094 9.35084 21.1423
O 9.2753 9.44399 3.92442
O 10.7214 4.637 9.19844
O 20.145 2.63338 1.2456
O 16.7027 4.85046 2.96523
O 10.5987 8.26383 0.778409
O 7.83936 9.98751 15.3762
O 13.0402 5.3494 7.72215
O 19.8763 22.6945 16.1948
O 21.972 15.2146 10.4005
O 3.01237 6.24627 10.0323
O 13.6538 0.247963 4.98484
O 1.23108 18.439 21.6447
O 12.3492 0.98664 8.95905
O 12.5264 18.9873 14.2063
O 3.71691 20.6953 17.0198
O 3.41019 4.33095 13.9423
O 21.0313 15.9559 13.6674
O 8.48079 2.02356 1.0423
O 2.52944 6.93551 4.4864
O 2.3849 14.0906 5.94344
O 16.5573 9.24578 3.61734
O 0.885361 22.4437 9.34694
O 11.283 5.86233 1.99574
O 22.3684 18.8356 5.85061
O 12.8036 8.32149 6.05157
O 7.16941 4.69147 20.2148
O 9.90926 14.1042 21.4436
O 1.98498 15.9249 21.0011
